/*--------------------------------*- C++ -*----------------------------------*\
| =========                 |                                                 |
| \\      /  F ield         | OpenFOAM: The Open Source CFD Toolbox           |
|  \\    /   O peration     | Version:  v1912                                 |
|   \\  /    A nd           | Website:  www.openfoam.com                      |
|    \\/     M anipulation  |                                                 |
\*---------------------------------------------------------------------------*/
FoamFile
{
    version     2.0;
    format      ascii;
    class       polyBoundaryMesh;
    location    "constant/polyMesh";
    object      boundary;
}
// * * * * * * * * * * * * * * * * * * * * * * * * * * * * * * * * * * * * * //


3
(
inlet
{
    type patch;
    nFaces 1664;
    startFace 882021;
}

outlet
{
    type patch;
    nFaces 1664;
    startFace 883685;
}

fixedWalls
{
    type wall;
    nFaces 52892;
    startFace 885349;
}

)


// ************************************************************************* //
