/*--------------------------------*- C++ -*----------------------------------*\
| =========                 |                                                 |
| \\      /  F ield         | OpenFOAM: The Open Source CFD Toolbox           |
|  \\    /   O peration     | Version:  v1912                                 |
|   \\  /    A nd           | Website:  www.openfoam.com                      |
|    \\/     M anipulation  |                                                 |
\*---------------------------------------------------------------------------*/
FoamFile
{
    version     2.0;
    format      ascii;
    class       polyBoundaryMesh;
    location    "constant/polyMesh";
    object      boundary;
}
// * * * * * * * * * * * * * * * * * * * * * * * * * * * * * * * * * * * * * //

8
(
    inlet
    {
        type            patch;
        nFaces          0;
        startFace       6015;
    }
    outlet
    {
        type            patch;
        nFaces          0;
        startFace       6015;
    }
    lowerSymmetry
    {
        type            symmetryPlane;
        inGroups        1(symmetryPlane);
        nFaces          4;
        startFace       6015;
    }
    obstical
    {
        type            wall;
        inGroups        1(wall);
        nFaces          32;
        startFace       6019;
    }
    top
    {
        type            patch;
        nFaces          21;
        startFace       6051;
    }
    defaultFaces
    {
        type            empty;
        inGroups        1(empty);
        nFaces          6202;
        startFace       6072;
    }
    procBoundary1to0
    {
        type            processor;
        inGroups        1(processor);
        nFaces          166;
        startFace       12274;
        matchTolerance  0.0001;
        transform       unknown;
        myProcNo        1;
        neighbProcNo    0;
    }
    procBoundary1to2
    {
        type            processor;
        inGroups        1(processor);
        nFaces          151;
        startFace       12440;
        matchTolerance  0.0001;
        transform       unknown;
        myProcNo        1;
        neighbProcNo    2;
    }
)

// ************************************************************************* //
