/*--------------------------------*- C++ -*----------------------------------*\
| =========                 |                                                 |
| \\      /  F ield         | OpenFOAM: The Open Source CFD Toolbox           |
|  \\    /   O peration     | Version:  2.1.0                                 |
|   \\  /    A nd           | Web:      www.OpenFOAM.org                      |
|    \\/     M anipulation  |                                                 |
\*---------------------------------------------------------------------------*/
FoamFile
{
    version     2.0;
    format      ascii;
    class       dictionary;
    object      blockMeshDict;
}
// * * * * * * * * * * * * * * * * * * * * * * * * * * * * * * * * * * * * * //

convertToMeters 0.01;

vertices
(
 //    (0 -5 0)     //0  
 //   (125 -5 0)
    (0 0 0)     //0  
    (125 0 0)
    (125 5 0)
    (0 5 0)
    //    (0 -5 5)
    //    (125 -5 5)
    (0 0 5)
    (125 0 5)
    (125 5 5)
    (0 5 5)
);

blocks
(
    hex (0 1 2 3 4 5 6 7) (100 30 20) simpleGrading (1 1 1)
);

edges
(
 arc 2 3 (62.5 12.5 0)
 arc 6 7 (62.5 12.5 5)
 // arc 0 1 (62.5 -12.5 0)
 // arc 4 5 (62.5 -12.5 5)
);

boundary
(
    wall
    {
        type wall;
        faces
        (
            (3 7 6 2)
            (4 5 6 7)
        );
    }
    inlet
    {
        type patch;
        faces
        (
            (0 4 7 3)
        );
    }
    outlet
    {
        type patch;
        faces
        (
            (2 6 5 1)
        );
    }
    centerline
    {
        type symmetryPlane;
        faces
        (
            (1 5 4 0)
        );
    }
    back
    {
      type symmetryPlane;
      faces
	(
	 (0 3 2 1)
	 );
    }
    /*    frontAndBack
    {
        type empty;
        faces
        (
            (0 3 2 1)
            (4 5 6 7)
        );
	}*/
);

mergePatchPairs
(
);

// ************************************************************************* //
