/*--------------------------------*- C++ -*----------------------------------*\
| =========                 |                                                 |
| \\      /  F ield         | OpenFOAM: The Open Source CFD Toolbox           |
|  \\    /   O peration     | Version:  v1912                                 |
|   \\  /    A nd           | Website:  www.openfoam.com                      |
|    \\/     M anipulation  |                                                 |
\*---------------------------------------------------------------------------*/
FoamFile
{
    version     2.0;
    format      ascii;
    class       polyBoundaryMesh;
    location    "constant/polyMesh";
    object      boundary;
}
// * * * * * * * * * * * * * * * * * * * * * * * * * * * * * * * * * * * * * //

8
(
    inlet
    {
        type            patch;
        nFaces          0;
        startFace       6017;
    }
    outlet
    {
        type            patch;
        nFaces          0;
        startFace       6017;
    }
    lowerSymmetry
    {
        type            symmetryPlane;
        inGroups        1(symmetryPlane);
        nFaces          16;
        startFace       6017;
    }
    obstical
    {
        type            wall;
        inGroups        1(wall);
        nFaces          18;
        startFace       6033;
    }
    top
    {
        type            patch;
        nFaces          19;
        startFace       6051;
    }
    defaultFaces
    {
        type            empty;
        inGroups        1(empty);
        nFaces          6202;
        startFace       6070;
    }
    procBoundary2to1
    {
        type            processor;
        inGroups        1(processor);
        nFaces          151;
        startFace       12272;
        matchTolerance  0.0001;
        transform       unknown;
        myProcNo        2;
        neighbProcNo    1;
    }
    procBoundary2to3
    {
        type            processor;
        inGroups        1(processor);
        nFaces          166;
        startFace       12423;
        matchTolerance  0.0001;
        transform       unknown;
        myProcNo        2;
        neighbProcNo    3;
    }
)

// ************************************************************************* //
