/*--------------------------------*- C++ -*----------------------------------*\
| =========                 |                                                 |
| \\      /  F ield         | OpenFOAM: The Open Source CFD Toolbox           |
|  \\    /   O peration     | Version:  v1912                                 |
|   \\  /    A nd           | Website:  www.openfoam.com                      |
|    \\/     M anipulation  |                                                 |
\*---------------------------------------------------------------------------*/
FoamFile
{
    version     2.0;
    format      ascii;
    class       polyBoundaryMesh;
    location    "constant/polyMesh";
    object      boundary;
}
// * * * * * * * * * * * * * * * * * * * * * * * * * * * * * * * * * * * * * //

7
(
    inlet
    {
        type            patch;
        nFaces          165;
        startFace       6020;
    }
    outlet
    {
        type            patch;
        nFaces          0;
        startFace       6185;
    }
    lowerSymmetry
    {
        type            symmetryPlane;
        inGroups        1(symmetryPlane);
        nFaces          18;
        startFace       6185;
    }
    obstical
    {
        type            wall;
        inGroups        1(wall);
        nFaces          0;
        startFace       6203;
    }
    top
    {
        type            patch;
        nFaces          19;
        startFace       6203;
    }
    defaultFaces
    {
        type            empty;
        inGroups        1(empty);
        nFaces          6204;
        startFace       6222;
    }
    procBoundary0to1
    {
        type            processor;
        inGroups        1(processor);
        nFaces          166;
        startFace       12426;
        matchTolerance  0.0001;
        transform       unknown;
        myProcNo        0;
        neighbProcNo    1;
    }
)

// ************************************************************************* //
