/*--------------------------------*- C++ -*----------------------------------*\
| =========                 |                                                 |
| \\      /  F ield         | OpenFOAM: The Open Source CFD Toolbox           |
|  \\    /   O peration     | Version:  2.4.0                                 |
|   \\  /    A nd           | Web:      www.OpenFOAM.org                      |
|    \\/     M anipulation  |                                                 |
\*---------------------------------------------------------------------------*/

FoamFile
{
    version     2.0;
    format      ascii;
    class       dictionary;
    object      blockMeshDict;
}
// * * * * * * * * * * * * * * * * * * * * * * * * * * * * * * * * * * * * * //

convertToMeters 0.043352601;

vertices        
(
    (-4.04 0 0)           //0
    (8.65 0 0)            //1
    (8.65 1.5 0)          //2
    (-4.04 1.4114 0)      //3
    (-4.04 0 0.1)        //4
    (8.65 0 0.1)         //5
    (8.65 1.5 0.1)       //6
    (-4.04 1.4114 0.1)   //7
);

blocks          
(
 hex (0 1 2 3 4 5 6 7) (81 51 1) simpleGrading (
	 (
	  (50 50 0.2)
	  (50 50 5)
	 ) 
	 (
	  (50 50 5)
	  (50 50 0.2)
	 ) 
	 (1))
);

edges           
(
    polyLine 3 2
    (//(0.00000000	0.56365260	-0.02460960)

            (-4.04 1.4113999999999858 0)
     (-4.03 1.4113999999999858 0)
     (-4.0200000000000005 1.4113999999999858 0)
     (-4.010000000000001 1.4113999999999858 0)
     (-4.000000000000001 1.4113999999999858 0)
     (-3.990000000000001 1.4113999999999858 0)
     (-3.9800000000000013 1.4113999999999858 0)
     (-3.9700000000000015 1.4113999999999858 0)
     (-3.9600000000000017 1.4113999999999858 0)
     (-3.950000000000002 1.4113999999999858 0)
     (-3.940000000000002 1.4113999999999858 0)
     (-3.9300000000000024 1.4113999999999858 0)
     (-3.9200000000000026 1.4113999999999858 0)
     (-3.910000000000003 1.4113999999999858 0)
     (-3.900000000000003 1.4113999999999858 0)
     (-3.8900000000000032 1.4113999999999858 0)
     (-3.8800000000000034 1.4113999999999858 0)
     (-3.8700000000000037 1.4113999999999858 0)
     (-3.860000000000004 1.4113999999999858 0)
     (-3.850000000000004 1.4113999999999858 0)
     (-3.8400000000000043 1.4113999999999858 0)
     (-3.8300000000000045 1.4113999999999858 0)
     (-3.8200000000000047 1.4113999999999858 0)
     (-3.810000000000005 1.4113999999999858 0)
     (-3.800000000000005 1.4113999999999858 0)
     (-3.7900000000000054 1.4113999999999858 0)
     (-3.7800000000000056 1.4113999999999858 0)
     (-3.770000000000006 1.4113999999999858 0)
     (-3.760000000000006 1.4113999999999858 0)
     (-3.750000000000006 1.4113999999999858 0)
     (-3.7400000000000064 1.4113999999999858 0)
     (-3.7300000000000066 1.4113999999999858 0)
     (-3.720000000000007 1.4113999999999858 0)
     (-3.710000000000007 1.4113999999999858 0)
     (-3.7000000000000073 1.4113999999999858 0)
     (-3.6900000000000075 1.4113999999999858 0)
     (-3.6800000000000077 1.4113999999999858 0)
     (-3.670000000000008 1.4113999999999858 0)
     (-3.660000000000008 1.4113999999999858 0)
     (-3.6500000000000083 1.4113999999999858 0)
     (-3.6400000000000086 1.4113999999999858 0)
     (-3.6300000000000088 1.4113999999999858 0)
     (-3.620000000000009 1.4113999999999858 0)
     (-3.610000000000009 1.4113999999999858 0)
     (-3.6000000000000094 1.4113999999999858 0)
     (-3.5900000000000096 1.4113999999999858 0)
     (-3.58000000000001 1.4113999999999858 0)
     (-3.57000000000001 1.4113999999999858 0)
     (-3.5600000000000103 1.4113999999999858 0)
     (-3.5500000000000105 1.4113999999999858 0)
     (-3.5400000000000107 1.4113999999999858 0)
     (-3.530000000000011 1.4113999999999858 0)
     (-3.520000000000011 1.4113999999999858 0)
     (-3.5100000000000113 1.4113999999999858 0)
     (-3.5000000000000115 1.4113999999999858 0)
     (-3.4900000000000118 1.4113999999999858 0)
     (-3.480000000000012 1.4113999999999858 0)
     (-3.470000000000012 1.4113999999999858 0)
     (-3.4600000000000124 1.4113999999999858 0)
     (-3.4500000000000126 1.4113999999999858 0)
     (-3.440000000000013 1.4113999999999858 0)
     (-3.430000000000013 1.4113999999999858 0)
     (-3.4200000000000133 1.4113999999999858 0)
     (-3.4100000000000135 1.4113999999999858 0)
     (-3.4000000000000137 1.4113999999999858 0)
     (-3.390000000000014 1.4113999999999858 0)
     (-3.380000000000014 1.4113999999999858 0)
     (-3.3700000000000143 1.4113999999999858 0)
     (-3.3600000000000145 1.4113999999999858 0)
     (-3.3500000000000147 1.4113999999999858 0)
     (-3.340000000000015 1.4113999999999858 0)
     (-3.330000000000015 1.4113999999999858 0)
     (-3.3200000000000154 1.4113999999999858 0)
     (-3.3100000000000156 1.4113999999999858 0)
     (-3.300000000000016 1.4113999999999858 0)
     (-3.290000000000016 1.4113999999999858 0)
     (-3.2800000000000162 1.4113999999999858 0)
     (-3.2700000000000164 1.4113999999999858 0)
     (-3.2600000000000167 1.4113999999999858 0)
     (-3.250000000000017 1.4113999999999858 0)
     (-3.240000000000017 1.4113999999999858 0)
     (-3.2300000000000173 1.4113999999999858 0)
     (-3.2200000000000175 1.4113999999999858 0)
     (-3.2100000000000177 1.4113999999999858 0)
     (-3.200000000000018 1.4113999999999858 0)
     (-3.190000000000018 1.4113999999999858 0)
     (-3.1800000000000184 1.4113999999999858 0)
     (-3.1700000000000186 1.4113999999999858 0)
     (-3.160000000000019 1.4113999999999858 0)
     (-3.150000000000019 1.4113999999999858 0)
     (-3.140000000000019 1.4113999999999858 0)
     (-3.1300000000000194 1.4113999999999858 0)
     (-3.1200000000000196 1.4113999999999858 0)
     (-3.11000000000002 1.4113999999999858 0)
     (-3.10000000000002 1.4113999999999858 0)
     (-3.0900000000000203 1.4113999999999858 0)
     (-3.0800000000000205 1.4113999999999858 0)
     (-3.0700000000000207 1.4113999999999858 0)
     (-3.060000000000021 1.4113999999999858 0)
     (-3.050000000000021 1.4113999999999858 0)
     (-3.0400000000000214 1.4113999999999858 0)
     (-3.0300000000000216 1.4113999999999858 0)
     (-3.020000000000022 1.4113999999999858 0)
     (-3.010000000000022 1.4113999999999858 0)
     (-3.000000000000022 1.4113999999999858 0)
     (-2.9900000000000224 1.4113999999999858 0)
     (-2.9800000000000226 1.4113999999999858 0)
     (-2.970000000000023 1.4113999999999858 0)
     (-2.960000000000023 1.4113999999999858 0)
     (-2.9500000000000233 1.4113999999999858 0)
     (-2.9400000000000235 1.4113999999999858 0)
     (-2.9300000000000237 1.4113999999999858 0)
     (-2.920000000000024 1.4113999999999858 0)
     (-2.910000000000024 1.4113999999999858 0)
     (-2.9000000000000243 1.4113999999999858 0)
     (-2.8900000000000245 1.4113999999999858 0)
     (-2.8800000000000248 1.4113999999999858 0)
     (-2.870000000000025 1.4113999999999858 0)
     (-2.860000000000025 1.4113999999999858 0)
     (-2.8500000000000254 1.4113999999999858 0)
     (-2.8400000000000256 1.4113999999999858 0)
     (-2.830000000000026 1.4113999999999858 0)
     (-2.820000000000026 1.4113999999999858 0)
     (-2.8100000000000263 1.4113999999999858 0)
     (-2.8000000000000265 1.4113999999999858 0)
     (-2.7900000000000267 1.4113999999999858 0)
     (-2.780000000000027 1.4113999999999858 0)
     (-2.770000000000027 1.4113999999999858 0)
     (-2.7600000000000273 1.4113999999999858 0)
     (-2.7500000000000275 1.4113999999999858 0)
     (-2.7400000000000277 1.4113999999999858 0)
     (-2.730000000000028 1.4113999999999858 0)
     (-2.720000000000028 1.4113999999999858 0)
     (-2.7100000000000284 1.4113999999999858 0)
     (-2.7000000000000286 1.4113999999999858 0)
     (-2.690000000000029 1.4113999999999858 0)
     (-2.680000000000029 1.4113999999999858 0)
     (-2.6700000000000292 1.4113999999999858 0)
     (-2.6600000000000295 1.4113999999999858 0)
     (-2.6500000000000297 1.4113999999999858 0)
     (-2.64000000000003 1.4113999999999858 0)
     (-2.63000000000003 1.4113999999999858 0)
     (-2.6200000000000303 1.4113999999999858 0)
     (-2.6100000000000305 1.4113999999999858 0)
     (-2.6000000000000307 1.4113999999999858 0)
     (-2.590000000000031 1.4113999999999858 0)
     (-2.598 1.4113999999999858 0)
     (-2.588 1.4113999999999858 0)
     (-2.5780000000000003 1.4113999991509305 0)
     (-2.5680000000000005 1.4113999135988184 0)
     (-2.5580000000000007 1.4113987533107808 0)
     (-2.548000000000001 1.4113926003004504 0)
     (-2.538000000000001 1.4113730606470556 0)
     (-2.5280000000000014 1.4113274654130723 0)
     (-2.5180000000000016 1.4112402833307136 0)
     (-2.508000000000002 1.4110948072162082 0)
     (-2.498000000000002 1.4108745718912876 0)
     (-2.488000000000002 1.4105643401419041 0)
     (-2.4780000000000024 1.4101506859201194 0)
     (-2.4680000000000026 1.4096222678723225 0)
     (-2.458000000000003 1.4089698895422362 0)
     (-2.448000000000003 1.4081864247423155 0)
     (-2.4380000000000033 1.407266665355681 0)
     (-2.4280000000000035 1.4062071306138388 0)
     (-2.4180000000000037 1.4050058631215259 0)
     (-2.408000000000004 1.4036622271644472 0)
     (-2.398000000000004 1.402176718247281 0)
     (-2.3880000000000043 1.4005507884978152 0)
     (-2.3780000000000046 1.3987866898392518 0)
     (-2.3680000000000048 1.3968873351608344 0)
     (-2.358000000000005 1.3948561767441618 0)
     (-2.348000000000005 1.3926971006806814 0)
     (-2.3380000000000054 1.390414335778479 0)
     (-2.3280000000000056 1.3880123753936702 0)
     (-2.318000000000006 1.385495910661803 0)
     (-2.308000000000006 1.3828697737016535 0)
     (-2.2980000000000063 1.3801388894885582 0)
     (-2.2880000000000065 1.3773082352289765 0)
     (-2.2780000000000067 1.3743828062016092 0)
     (-2.268000000000007 1.3713675871569795 0)
     (-2.258000000000007 1.3682675284838295 0)
     (-2.2480000000000073 1.3650875264556324 0)
     (-2.2380000000000075 1.361832406963843 0)
     (-2.2280000000000078 1.358506912226634 0)
     (-2.218000000000008 1.3551156900335903 0)
     (-2.208000000000008 1.3516632851491723 0)
     (-2.1980000000000084 1.3481541325516495 0)
     (-2.1880000000000086 1.344592552230709 0)
     (-2.178000000000009 1.3409827453069267 0)
     (-2.168000000000009 1.3373287912706302 0)
     (-2.1580000000000092 1.3336346461671196 0)
     (-2.1480000000000095 1.3299041415804433 0)
     (-2.1380000000000097 1.3261409842894947 0)
     (-2.12800000000001 1.3223487564886676 0)
     (-2.11800000000001 1.3185309164810897 0)
     (-2.1080000000000103 1.31469079976594 0)
     (-2.0980000000000105 1.3108316204528965 0)
     (-2.0880000000000107 1.3069564729465908 0)
     (-2.078000000000011 1.303068333852384 0)
     (-2.068000000000011 1.2991700640619486 0)
     (-2.0580000000000114 1.2952644109832878 0)
     (-2.0480000000000116 1.2913540108850805 0)
     (-2.038000000000012 1.2874413913296963 0)
     (-2.028000000000012 1.28352897367308 0)
     (-2.0180000000000122 1.2796190756129564 0)
     (-2.0080000000000124 1.2757139137696045 0)
     (-1.9980000000000127 1.2718156062858408 0)
     (-1.9880000000000129 1.2679261754348832 0)
     (-1.978000000000013 1.2640475502265085 0)
     (-1.9680000000000133 1.260181569003414 0)
     (-1.9580000000000135 1.2563299820209448 0)
     (-1.9480000000000137 1.2524944540044591 0)
     (-1.938000000000014 1.2486765666795063 0)
     (-1.9280000000000141 1.244877821270806 0)
     (-1.9180000000000144 1.24109964096668 0)
     (-1.9080000000000146 1.2373433733461743 0)
     (-1.8980000000000148 1.2336102927666024 0)
     (-1.888000000000015 1.2299016027096654 0)
     (-1.8780000000000152 1.2262184380846648 0)
     (-1.8680000000000154 1.222561867487632 0)
     (-1.8580000000000156 1.2189328954154763 0)
     (-1.8480000000000159 1.215332464434462 0)
     (-1.838000000000016 1.2117614573025384 0)
     (-1.8280000000000163 1.2082206990452016 0)
     (-1.8180000000000165 1.2047109589847218 0)
     (-1.8080000000000167 1.2012329527226846 0)
     (-1.798000000000017 1.1977873440759075 0)
     (-1.7880000000000171 1.194374746965885 0)
     (-1.7780000000000173 1.190995727261993 0)
     (-1.7680000000000176 1.187650804578756 0)
     (-1.7580000000000178 1.1843404540275344 0)
     (-1.748000000000018 1.1810651079230514 0)
     (-1.7380000000000182 1.177825157445214 0)
     (-1.7280000000000184 1.174620954256725 0)
     (-1.7180000000000186 1.1714528120770267 0)
     (-1.7080000000000188 1.1683210082131297 0)
     (-1.698000000000019 1.1652257850479188 0)
     (-1.6880000000000193 1.162167351486555 0)
     (-1.6780000000000195 1.1591458843615894 0)
     (-1.6680000000000197 1.156161529797455 0)
     (-1.65800000000002 1.153214404534989 0)
     (-1.6480000000000201 1.1503045972166634 0)
     (-1.6380000000000203 1.1474321696332166 0)
     (-1.6280000000000205 1.144597157932376 0)
     (-1.6180000000000208 1.1417995737903806 0)
     (-1.608000000000021 1.139039405547011 0)
     (-1.5980000000000212 1.1363166193048442 0)
     (-1.5880000000000214 1.1336311599934519 0)
     (-1.5780000000000216 1.1309829523992623 0)
     (-1.5680000000000218 1.1283719021618133 0)
     (-1.558000000000022 1.1257978967371125 0)
     (-1.5480000000000222 1.1232608063288378 0)
     (-1.5380000000000225 1.1207604847880939 0)
     (-1.5280000000000227 1.1182967704824438 0)
     (-1.5180000000000229 1.1158694871349406 0)
     (-1.508000000000023 1.1134784446338624 0)
     (-1.4980000000000233 1.111123439813869 0)
     (-1.4880000000000235 1.1088042572092793 0)
     (-1.4780000000000237 1.1065206697801713 0)
     (-1.468000000000024 1.1042724396119938 0)
     (-1.4580000000000242 1.102059318589382 0)
     (-1.4480000000000244 1.0998810490448487 0)
     (-1.4380000000000246 1.0977373643830286 0)
     (-1.4280000000000248 1.0956279896811352 0)
     (-1.418000000000025 1.093552642266286 0)
     (-1.4080000000000252 1.0915110322703439 0)
     (-1.3980000000000254 1.089502863162907 0)
     (-1.3880000000000257 1.0875278322630784 0)
     (-1.3780000000000259 1.0855856312306325 0)
     (-1.368000000000026 1.0836759465371795 0)
     (-1.3580000000000263 1.0817984599179356 0)
     (-1.3480000000000265 1.079952848804675 0)
     (-1.3380000000000267 1.0781387867404446 0)
     (-1.328000000000027 1.0763559437766064 0)
     (-1.3180000000000271 1.074603986852758 0)
     (-1.3080000000000274 1.072882580160079 0)
     (-1.2980000000000276 1.07119138548863 0)
     (-1.2880000000000278 1.0695300625591264 0)
     (-1.278000000000028 1.067898269339698 0)
     (-1.2680000000000282 1.066295662348128 0)
     (-1.2580000000000284 1.0647218969400611 0)
     (-1.2480000000000286 1.0631766275836558 0)
     (-1.2380000000000289 1.0616595081211395 0)
     (-1.228000000000029 1.060170192017727 0)
     (-1.2180000000000293 1.0587083325983373 0)
     (-1.2080000000000295 1.0572735832725402 0)
     (-1.1980000000000297 1.055865597748154 0)
     (-1.18800000000003 1.0544840302339005 0)
     (-1.1780000000000301 1.0531285356315148 0)
     (-1.1680000000000303 1.051798769717697 0)
     (-1.1580000000000306 1.05049438931628 0)
     (-1.1480000000000308 1.0492150524609822 0)
     (-1.138000000000031 1.0479604185490983 0)
     (-1.1280000000000312 1.0467301484864704 0)
     (-1.1180000000000314 1.0455239048240808 0)
     (-1.1080000000000316 1.0443413518865856 0)
     (-1.0980000000000318 1.043182155893107 0)
     (-1.088000000000032 1.0420459850705903 0)
     (-1.0780000000000323 1.0409325097600226 0)
     (-1.0680000000000325 1.039841402515797 0)
     (-1.0580000000000327 1.0387723381985055 0)
     (-1.048000000000033 1.0377249940614275 0)
     (-1.0380000000000331 1.0366990498309743 0)
     (-1.0280000000000333 1.0356941877813435 0)
     (-1.0180000000000335 1.0347100928036257 0)
     (-1.0080000000000338 1.0337464524696034 0)
     (-0.998000000000034 1.0328029570904644 0)
     (-0.9880000000000342 1.0318792997706558 0)
     (-0.9780000000000344 1.0309751764570891 0)
     (-0.9680000000000346 1.0300902859839016 0)
     (-0.9580000000000348 1.0292243301129755 0)
     (-0.948000000000035 1.028377013570402 0)
     (-0.9380000000000353 1.0275480440790798 0)
     (-0.9280000000000355 1.0267371323876244 0)
     (-0.9180000000000357 1.025943992295759 0)
     (-0.9080000000000359 1.0251683406763543 0)
     (-0.8980000000000361 1.0244098974942777 0)
     (-0.8880000000000363 1.023668385822203 0)
     (-0.8780000000000365 1.0229435318535312 0)
     (-0.8680000000000367 1.0222350649125633 0)
     (-0.858000000000037 1.0215427174620642 0)
     (-0.8480000000000372 1.0208662251083465 0)
     (-0.8380000000000374 1.020205326604006 0)
     (-0.8280000000000376 1.0195597638484266 0)
     (-0.8180000000000378 1.018929281886172 0)
     (-0.808000000000038 1.0183136289033818 0)
     (-0.7980000000000382 1.0177125562222742 0)
     (-0.7880000000000384 1.0171258182938632 0)
     (-0.7780000000000387 1.0165531726889876 0)
     (-0.7680000000000389 1.0159943800877511 0)
     (-0.7580000000000391 1.0154492042674614 0)
     (-0.7480000000000393 1.0149174120891573 0)
     (-0.7380000000000395 1.0143987734828117 0)
     (-0.7280000000000397 1.0138930614312875 0)
     (-0.7180000000000399 1.013400051953125 0)
     (-0.7080000000000402 1.0129195240842357 0)
     (-0.6980000000000404 1.0124512598585746 0)
     (-0.6880000000000406 1.0119950442878565 0)
     (-0.6780000000000408 1.0115506653403836 0)
     (-0.668000000000041 1.011117913919045 0)
     (-0.6580000000000412 1.0106965838385509 0)
     (-0.6480000000000414 1.0102864718019537 0)
     (-0.6380000000000416 1.009887377376514 0)
     (-0.6280000000000419 1.009499102968963 0)
     (-0.6180000000000421 1.0091214538002082 0)
     (-0.6080000000000423 1.0087542378795347 0)
     (-0.5980000000000425 1.0083972659783413 0)
     (-0.5880000000000427 1.0080503516034596 0)
     (-0.5780000000000429 1.007713310970094 0)
     (-0.5680000000000431 1.007385962974422 0)
     (-0.5580000000000434 1.0070681291658945 0)
     (-0.5480000000000436 1.0067596337192681 0)
     (-0.5380000000000438 1.006460303406404 0)
     (-0.528000000000044 1.0061699675678684 0)
     (-0.5180000000000442 1.0058884580843603 0)
     (-0.5080000000000444 1.0056156093479989 0)
     (-0.49800000000004463 1.0053512582334967 0)
     (-0.48800000000004484 1.005095244069244 0)
     (-0.47800000000004506 1.004847408608331 0)
     (-0.46800000000004527 1.0046075959995289 0)
     (-0.4580000000000455 1.0043756527582535 0)
     (-0.4480000000000457 1.004151427737531 0)
     (-0.4380000000000459 1.0039347720989875 0)
     (-0.4280000000000461 1.00372553928388 0)
     (-0.41800000000004633 1.0035235849841841 0)
     (-0.40800000000004655 1.0033287671137603 0)
     (-0.39800000000004676 1.003140945779609 0)
     (-0.388000000000047 1.002959983253234 0)
     (-0.3780000000000472 1.0027857439421226 0)
     (-0.3680000000000474 1.002618094361361 0)
     (-0.3580000000000476 1.0024569031053934 0)
     (-0.3480000000000478 1.002302040819938 0)
     (-0.33800000000004804 1.0021533801740692 0)
     (-0.32800000000004825 1.002010795832478 0)
     (-0.31800000000004847 1.001874164427917 0)
     (-0.3080000000000487 1.0017433645338412 0)
     (-0.2980000000000489 1.0016182766372526 0)
     (-0.2880000000000491 1.0014987831117528 0)
     (-0.2780000000000493 1.0013847681908146 0)
     (-0.26800000000004953 1.001276117941277 0)
     (-0.25800000000004975 1.0011727202370684 0)
     (-0.24800000000004996 1.0010744647331657 0)
     (-0.23800000000005017 1.0009812428397928 0)
     (-0.22800000000005038 1.0008929476968618 0)
     (-0.2180000000000506 1.0008094741486648 0)
     (-0.2080000000000508 1.0007307187188141 0)
     (-0.19800000000005102 1.0006565795854407 0)
     (-0.18800000000005124 1.0005869565566476 0)
     (-0.17800000000005145 1.0005217510462254 0)
     (-0.16800000000005166 1.0004608660496295 0)
     (-0.15800000000005188 1.000404206120222 0)
     (-0.1480000000000521 1.00035167734578 0)
     (-0.1380000000000523 1.0003031873252697 0)
     (-0.12800000000005252 1.0002586451458912 0)
     (-0.11800000000005273 1.0002179613603914 0)
     (-0.10800000000005294 1.000181047964646 0)
     (-0.09800000000005316 1.000147818375513 0)
     (-0.08800000000005337 1.0001181874089553 0)
     (-0.07800000000005358 1.0000920712584356 0)
     (-0.0680000000000538 1.0000693874735784 0)
     (-0.05800000000005401 1.000050054939104 0)
     (-0.04800000000005422 1.0000339938540304 0)
     (-0.038000000000054435 1.000021125711144 0)
     (-0.028000000000054648 1.0000113732767368 0)
     (-0.01800000000005486 1.0000046605706119 0)
     (-0.008000000000055074 1.0000009128463507 0)
     (0.0019999999999447127 1.0000000565718483 0)
     (0.0 1.0 0)
     (0.01 1.0000016230892432 0)
     (0.02 1.0000065031374823 0)
     (0.03 1.0000146563177632 0)
     (0.04 1.0000260988054854 0)
     (0.05 1.0000408467775357 0)
     (0.06 1.0000589164114115 0)
     (0.07 1.0000803238843352 0)
     (0.08 1.0001050853723579 0)
     (0.09 1.0001332170494557 0)
     (0.1 1.0001647350866134 0)
     (0.11 1.0001996556509016 0)
     (0.12 1.0002379949045423 0)
     (0.13 1.0002797690039646 0)
     (0.14 1.0003249940988532 0)
     (0.15 1.0003736863311834 0)
     (0.16 1.0004258618342503 0)
     (0.17 1.000481536731686 0)
     (0.18 1.0005407271364666 0)
     (0.19 1.0006034491499116 0)
     (0.2 1.0006697188606726 0)
     (0.21 1.000739552343711 0)
     (0.22 1.0008129656592675 0)
     (0.23 1.0008899748518214 0)
     (0.24 1.0009705959490407 0)
     (0.25 1.0010548449607204 0)
     (0.26 1.0011427378777145 0)
     (0.27 1.0012342906708533 0)
     (0.28 1.0013295192898573 0)
     (0.29 1.0014284396622353 0)
     (0.3 1.0015310676921758 0)
     (0.31 1.0016374192594295 0)
     (0.32 1.001747510218179 0)
     (0.33 1.0018613563959013 0)
     (0.34 1.00197897359222 0)
     (0.35000000000000003 1.002100377577747 0)
     (0.36 1.0022255840929153 0)
     (0.37 1.0023546088468018 0)
     (0.38 1.0024874675159408 0)
     (0.39 1.002624175743127 0)
     (0.4 1.0027647491362097 0)
     (0.41000000000000003 1.002909203266877 0)
     (0.42 1.003057553669431 0)
     (0.43 1.003209815839553 0)
     (0.44 1.0033660052330573 0)
     (0.45 1.00352613726464 0)
     (0.46 1.0036902273066144 0)
     (0.47000000000000003 1.0038582906876372 0)
     (0.48 1.0040303426914285 0)
     (0.49 1.004206398555479 0)
     (0.5 1.0043864734697483 0)
     (0.51 1.0045705825753568 0)
     (0.52 1.0047587409632641 0)
     (0.53 1.0049509636729423 0)
     (0.54 1.0051472656910367 0)
     (0.55 1.00534766195002 0)
     (0.56 1.0055521673268346 0)
     (0.5700000000000001 1.0057607966415303 0)
     (0.58 1.0059735646558883 0)
     (0.59 1.0061904860720383 0)
     (0.6 1.0064115755310683 0)
     (0.61 1.006636847611623 0)
     (0.62 1.0068663168284948 0)
     (0.63 1.0070999976312058 0)
     (0.64 1.0073379044025814 0)
     (0.65 1.0075800514573163 0)
     (0.66 1.007826453040529 0)
     (0.67 1.0080771233263124 0)
     (0.68 1.0083320764162713 0)
     (0.6900000000000001 1.0085913263380561 0)
     (0.7000000000000001 1.0088548870438847 0)
     (0.71 1.009122772409059 0)
     (0.72 1.0093949962304722 0)
     (0.73 1.0096715722251073 0)
     (0.74 1.0099525140285301 0)
     (0.75 1.0102378351933725 0)
     (0.76 1.0105275491878092 0)
     (0.77 1.0108216693940264 0)
     (0.78 1.0111202091066829 0)
     (0.79 1.011423181531365 0)
     (0.8 1.0117305997830321 0)
     (0.81 1.012042476884458 0)
     (0.8200000000000001 1.0123588257646616 0)
     (0.8300000000000001 1.0126796592573346 0)
     (0.84 1.013004990099259 0)
     (0.85 1.0133348309287207 0)
     (0.86 1.013669194283914 0)
     (0.87 1.0140080926013417 0)
     (0.88 1.0143515382142072 0)
     (0.89 1.0146995433508028 0)
     (0.9 1.015052120132888 0)
     (0.91 1.0154092805740664 0)
     (0.92 1.0157710365781538 0)
     (0.93 1.016137399937541 0)
     (0.9400000000000001 1.0165083823315513 0)
     (0.9500000000000001 1.0168839953247943 0)
     (0.96 1.0172642503655114 0)
     (0.97 1.0176491587839176 0)
     (0.98 1.0180387317905397 0)
     (0.99 1.018432980474547 0)
     (1.0 1.0188319158020793 0)
     (1.01 1.0192355486145697 0)
     (1.02 1.0196438896270636 0)
     (1.03 1.020056949426532 0)
     (1.04 1.0204747384701822 0)
     (1.05 1.0208972670837644 0)
     (1.06 1.0213245454598745 0)
     (1.07 1.0217565836562525 0)
     (1.08 1.0221933915940786 0)
     (1.09 1.0226349790562659 0)
     (1.1 1.02308135568575 0)
     (1.11 1.0235325309837753 0)
     (1.12 1.023988514308179 0)
     (1.1300000000000001 1.0244493148716731 0)
     (1.1400000000000001 1.024914941740123 0)
     (1.1500000000000001 1.0253854038308257 0)
     (1.16 1.025860709910783 0)
     (1.17 1.0263408685949782 0)
     (1.18 1.0268258883446444 0)
     (1.19 1.027315777465538 0)
     (1.2 1.0278105441062069 0)
     (1.21 1.028310196256259 0)
     (1.22 1.0288147417446318 0)
     (1.23 1.0293241882378572 0)
     (1.24 1.0298385432383304 0)
     (1.25 1.0303578140825762 0)
     (1.26 1.0308820079395171 0)
     (1.27 1.0314111318087391 0)
     (1.28 1.0319451925187617 0)
     (1.29 1.0324841967253051 0)
     (1.3 1.033028150909561 0)
     (1.31 1.0335770613764637 0)
     (1.32 1.0341309342529623 0)
     (1.33 1.0346897754862951 0)
     (1.34 1.035253590842266 0)
     (1.35 1.0358223859035232 0)
     (1.36 1.0363961660678385 0)
     (1.37 1.0369749365463927 0)
     (1.3800000000000001 1.0375587023620607 0)
     (1.3900000000000001 1.0381474683477014 0)
     (1.4000000000000001 1.0387412391444504 0)
     (1.41 1.0393400192000155 0)
     (1.42 1.0399438127669793 0)
     (1.43 1.0405526239011014 0)
     (1.44 1.041166456459628 0)
     (1.45 1.0417853140996056 0)
     (1.46 1.0424092002761989 0)
     (1.47 1.0430381182410142 0)
     (1.48 1.0436720710404286 0)
     (1.49 1.0443110615139244 0)
     (1.5 1.0449550922924289 0)
     (1.51 1.045604165796662 0)
     (1.52 1.0462582842354886 0)
     (1.53 1.0469174496042783 0)
     (1.54 1.0475816636832729 0)
     (1.55 1.0482509280359595 0)
     (1.56 1.0489252440074524 0)
     (1.57 1.049604612722883 0)
     (1.58 1.0502890350857965 0)
     (1.59 1.050978511776558 0)
     (1.6 1.0516730432507668 0)
     (1.61 1.0523726297376803 0)
     (1.62 1.0530772712386454 0)
     (1.6300000000000001 1.0537869675255416 0)
     (1.6400000000000001 1.054501718139232 0)
     (1.6500000000000001 1.0552215223880257 0)
     (1.6600000000000001 1.055946379346149 0)
     (1.67 1.0566762878522293 0)
     (1.68 1.0574112465077874 0)
     (1.69 1.0581512536757431 0)
     (1.7 1.058896307478931 0)
     (1.71 1.0596464057986283 0)
     (1.72 1.0604015462730951 0)
     (1.73 1.0611617262961268 0)
     (1.74 1.0619269430156177 0)
     (1.75 1.062697193332141 0)
     (1.76 1.0634724738975374 0)
     (1.77 1.064252781113521 0)
     (1.78 1.065038111130297 0)
     (1.79 1.065828459845193 0)
     (1.8 1.0666238229013076 0)
     (1.81 1.0674241956861699 0)
     (1.82 1.0682295733304155 0)
     (1.83 1.069039950706479 0)
     (1.84 1.0698553224272993 0)
     (1.85 1.0706756828450434 0)
     (1.86 1.0715010260498443 0)
     (1.87 1.0723313458685562 0)
     (1.8800000000000001 1.0731666358635257 0)
     (1.8900000000000001 1.0740068893313808 0)
     (1.9000000000000001 1.074852099301837 0)
     (1.9100000000000001 1.0757022585365188 0)
     (1.92 1.0765573595278033 0)
     (1.93 1.0774173944976775 0)
     (1.94 1.0782823553966159 0)
     (1.95 1.0791522339024773 0)
     (1.96 1.0800270214194196 0)
     (1.97 1.0809067090768338 0)
     (1.98 1.0817912877282971 0)
     (1.99 1.0826807479505483 0)
     (2.0 1.0835750800424788 0)
     (2.0100000000000002 1.084474274024148 0)
     (2.02 1.0853783196358173 0)
     (2.0300000000000002 1.086287206337006 0)
     (2.04 1.0872009233055648 0)
     (2.05 1.0881194594367778 0)
     (2.06 1.0890428033424786 0)
     (2.07 1.0899709433501932 0)
     (2.08 1.090903867502303 0)
     (2.09 1.0918415635552299 0)
     (2.1 1.0927840189786473 0)
     (2.11 1.0937312209547088 0)
     (2.12 1.0946831563773058 0)
     (2.13 1.0956398118513437 0)
     (2.14 1.0966011736920451 0)
     (2.15 1.097567227924275 0)
     (2.16 1.0985379602818928 0)
     (2.17 1.0995133562071244 0)
     (2.18 1.1004934008499634 0)
     (2.19 1.1014780790675947 0)
     (2.2 1.1024673754238454 0)
     (2.21 1.103461274188657 0)
     (2.22 1.1044597593375887 0)
     (2.23 1.1054628145513423 0)
     (2.24 1.106470423215315 0)
     (2.25 1.1074825684191785 0)
     (2.2600000000000002 1.1084992329564842 0)
     (2.27 1.1095203993242948 0)
     (2.2800000000000002 1.1105460497228443 0)
     (2.29 1.111576166055223 0)
     (2.3000000000000003 1.1126107299270922 0)
     (2.31 1.1136497226464248 0)
     (2.32 1.1146931252232732 0)
     (2.33 1.115740918369568 0)
     (2.34 1.1167930824989407 0)
     (2.35 1.1178495977265797 0)
     (2.36 1.118910443869109 0)
     (2.37 1.1199756004445014 0)
     (2.38 1.1210450466720157 0)
     (2.39 1.122118761472165 0)
     (2.4 1.1231967234667173 0)
     (2.41 1.1242789109787177 0)
     (2.42 1.1253653020325485 0)
     (2.43 1.1264558743540125 0)
     (2.44 1.1275506053704518 0)
     (2.45 1.1286494722108904 0)
     (2.46 1.1297524517062123 0)
     (2.47 1.130859520389366 0)
     (2.48 1.1319706544956023 0)
     (2.49 1.1330858299627402 0)
     (2.5 1.1342050224314655 0)
     (2.5100000000000002 1.1353282072456579 0)
     (2.52 1.1364553594527498 0)
     (2.5300000000000002 1.1375864538041185 0)
     (2.54 1.1387214647555042 0)
     (2.5500000000000003 1.139860366467465 0)
     (2.56 1.1410031328058583 0)
     (2.57 1.1421497373423566 0)
     (2.58 1.1433001533549931 0)
     (2.59 1.144454353828739 0)
     (2.6 1.1456123114561145 0)
     (2.61 1.146773998637827 0)
     (2.62 1.147939387483445 0)
     (2.63 1.1491084498121016 0)
     (2.64 1.1502811571532328 0)
     (2.65 1.1514574807473408 0)
     (2.66 1.1526373915467982 0)
     (2.67 1.1538208602166766 0)
     (2.68 1.1550078571356122 0)
     (2.69 1.156198352396699 0)
     (2.7 1.1573923158084194 0)
     (2.71 1.1585897168955999 0)
     (2.72 1.159790524900406 0)
     (2.73 1.1609947087833643 0)